10
 energy: -39.805454835234 gnorm: 0.000011119448 xtb: 6.2.3 (830e466)
Au        0.13032120540721   -1.46882689020703    2.60520984979584
Au       -1.68083042870316   -0.03675677370981    1.10971898126645
Au       -1.14898429750526    2.57779130291790    0.43970161775143
Au        1.14028533959595    3.76640648595980    1.23392398253708
Au        0.62038504429910    1.12463392575635    1.92047168499992
Au        2.95751602599527    2.30413440228527    2.74388300171382
Au        5.25876357750127    3.46554516520087    3.55464365317906
Au        2.43764214834781   -0.33762123319756    3.43043888258899
Au        4.72680060738130    0.85103644506372    4.22491780615326
Au        3.44770077768047    4.89755716993057    2.05889054001419
