30
Energy:            -388.3505
O              1.8011924             -0.2475716             -1.7591262
H              2.1690462             -0.0267520             -0.8691118
H              1.1637466              0.4652490             -1.9506160
O              0.2960627             -2.5273560             -1.7873694
H              0.6177168             -3.1407225             -2.4553322
H              0.9245473             -1.7508288             -1.7918789
O             -1.0747967              0.5203699              2.3494387
H             -0.6989665              1.2594673              1.8256588
H             -0.3078826             -0.0402723              2.5945306
O             -2.6750067             -1.2113156              0.9486847
H             -3.5246769             -1.3220862              1.3865398
H             -2.1711340             -0.5332305              1.4790334
O              2.3992754              0.5558036              0.8526314
H              1.7541160              1.2869481              0.8915553
H              2.0730688             -0.1102510              1.4933234
O              1.1054332             -1.3036843              2.5773727
H              1.4602006             -1.8020591              3.3200623
H              0.6390433             -1.9636219              1.9936144
O             -0.4623649              1.5851977             -1.9255372
H             -0.7063967              2.0322415             -2.7426635
H             -1.0523692              0.7801254             -1.8624329
O             -1.9124812             -0.7202215             -1.7294013
H             -1.2615018             -1.4428787             -1.8572265
H             -2.3097761             -0.8809352             -0.8449157
O             -0.3764515             -2.9311752              0.9345062
H             -1.2584855             -2.5063865              0.9493728
H             -0.0971753             -2.9176049             -0.0073101
O              0.1994864              2.4147250              0.6471054
H              0.2459093              3.3746041              0.7003955
H             -0.0556770              2.1965030             -0.2855177
