21
Energy:            -243.5728
O              1.7351767             -0.9860123              0.9008491
H              0.8317465             -1.2768274              1.0252368
H              2.1609111             -1.1595758              1.7404072
O             -0.7320562              2.3550022              1.2548368
H              0.0783294              2.1346991              0.7955182
H             -0.7000111              3.3063883              1.3551839
O             -0.1529110              0.4431686             -2.2689799
H             -0.1886955              0.5346950             -3.2211218
H              0.1367014             -0.4577674             -2.1252065
O              1.3793421              1.5190851             -0.2114843
H              1.6223304              0.6905921              0.2017806
H              0.9273149              1.2627937             -1.0153611
O             -0.9010891             -1.8564580              0.8183288
H             -1.5677307             -2.3389948              1.3071836
H             -1.3490851             -1.0656409              0.5180960
O              0.6515508             -2.0257641             -1.5355192
H             -0.0406489             -2.2367764             -0.9089690
H              1.4110284             -1.8153567             -0.9922381
O             -1.9890723              0.3858328             -0.1733021
H             -1.7003722              1.1123080              0.3790727
H             -1.4999440              0.4952957             -0.9887794
