21
Energy:            -239.4303
O             -1.7772880              0.5731797              1.3267394
H             -0.9966522              0.1311739              1.7173714
H             -1.8855373              0.1659827              0.4432444
O             -0.7215044              3.1325377              1.0245175
H             -1.2339648              2.2974474              1.1541497
H             -1.0184421              3.7300547              1.7129326
O              1.5258335              1.5920125              0.4086702
H              1.3914343              0.9079229              1.0958108
H              0.8462784              2.2819010              0.5973747
O              0.7301478             -0.6599193              2.0231085
H              1.0682409             -1.1225678              2.7956889
H              0.7442262             -1.3126995              1.2770733
O              0.5758283             -2.1529121             -0.3166438
H             -0.3674013             -2.0347214             -0.5382732
H              1.0264368             -1.5386105             -0.9307056
O              0.9942543              0.2083175             -1.8829759
H              1.5474741              0.5002741             -2.6133777
H              1.2358200              0.7821738             -1.1008596
O             -1.6390010             -0.6056063             -1.2872529
H             -2.2499176             -0.5980121             -2.0298857
H             -0.7934439             -0.2148711             -1.6174512
