5
Energy:              -7.1323
He              1.0978409              2.7346030             -0.9393044
Ne             -0.8079939             -2.0080101              0.3051778
Ar              2.1554045             -0.2443563              0.1468407
Kr             -0.7537188              0.2448187             -2.4531826
Xe             -1.3543457              1.5612678              1.6194631
