38
Energy:            -173.2453
Ar              2.2635080             -1.3021673              0.2364510
Ar             -4.0696589             -1.7833951             -1.0912553
Ar              3.3465963              0.5473776              5.1173994
Ar              4.6352036              2.9641120             -1.9064564
Ar             -5.2396084              1.6412581             -2.1458985
Ar              2.1975346              3.9699958              4.0662786
Ar              2.9139336             -0.1048691             -3.2585750
Ar             -0.1537578             -0.2936708              6.2036580
Ar             -3.5310673              4.6998827             -0.7800296
Ar             -1.8706342             -3.3672049              4.8312587
Ar              3.9770026              1.7439961              1.5989158
Ar              5.1470505             -1.6806710              2.6532521
Ar              0.0611707              0.2542515             -5.6961461
Ar              1.1218741              2.0986964             -0.8081952
Ar             -5.8825641              0.4360893              1.3575178
Ar              1.7779228              3.3278948             -4.3237295
Ar              3.4384866             -4.7393483              1.2876312
Ar              4.0814241             -3.5339516             -2.2157154
Ar              5.7898690             -0.4751665             -0.8500914
Ar             -2.9362859             -5.2206833             -0.0378087
Ar             -1.2145583             -2.1381033              1.3158395
Ar             -4.1741020              3.4946992              2.7233876
Ar              2.8435532              5.1812951              0.5458881
Ar             -0.5757456             -0.9405450             -2.1653462
Ar              1.6313510             -2.5096021              3.7313159
Ar             -1.3028293              3.1289101              5.1523874
Ar             -3.0066453              0.0655822              3.7661092
Ar             -0.0136789              5.5451888             -1.8714567
Ar              0.5682738             -4.3585518             -1.1260230
Ar             -0.6609501              4.3190723              1.6338157
Ar             -2.2902497             -4.0096773             -3.5583525
Ar              0.4831067              0.9010895              2.6729642
Ar             -3.4390998             -0.5870227             -4.6098257
Ar             -2.3561517              1.2627716              0.2711277
Ar             -1.7239135              2.4701423             -3.2237536
Ar             -4.7280805             -3.0031875              2.4141292
Ar              1.2100750             -3.1683730             -4.6446476
Ar             -0.0788494             -5.5846809              2.3792819
