221
Energy:            -276.3905
C             15.8821867             -8.0767972              0.6439695
O             14.9917292             -8.7608208              0.7516988
C             16.6325709            -11.9800668              1.1739829
O             15.9712075            -11.8942108              0.2642956
C              5.3121225             -9.9841690              1.1766318
O              5.9738077            -10.0629330              0.2665363
C             12.7838764            -11.3074394              1.7420222
O             12.6032307            -11.3135664              0.6285415
C              9.1577850            -10.6561473              1.7483942
O              9.3350743            -10.6517601              0.6343630
C             10.3325340            -14.2928510              1.3527857
O             10.1867442            -13.8739830              0.3156654
C              7.8062621             -7.0049638              1.2248930
O              8.1608769             -7.6313347              0.3564292
C              6.0554672            -13.8809946              0.6401102
O              6.9508126            -13.2041346              0.7524732
C             11.6161381             -7.6726403              1.3599012
O             11.7558950             -8.0869225              0.3201116
C             14.1462143            -14.9646164              1.2244407
O             13.7889662            -14.3306850              0.3625673
Pd             19.9550000            -19.9550000             -7.9820000
Pd             17.9595000            -17.9595000             -7.9820000
Pd             19.9550000            -17.9595000             -5.9865000
Pd             17.9595000            -19.9550000             -5.9865000
Pd             19.9550000            -15.9640000             -7.9820000
Pd             17.9595000            -13.9685000             -7.9820000
Pd             19.9550000            -13.9685000             -5.9865000
Pd             17.9595000            -15.9640000             -5.9865000
Pd             19.9550000            -11.9730000             -7.9820000
Pd             17.9595000             -9.9775000             -7.9820000
Pd             19.9550000             -9.9775000             -5.9865000
Pd             17.9595000            -11.9730000             -5.9865000
Pd             19.9550000             -7.9820000             -7.9820000
Pd             17.9595000             -5.9865000             -7.9820000
Pd             19.9550000             -5.9865000             -5.9865000
Pd             17.9595000             -7.9820000             -5.9865000
Pd             19.9550000             -3.9910000             -7.9820000
Pd             17.9595000             -1.9955000             -7.9820000
Pd             19.9550000             -1.9955000             -5.9865000
Pd             17.9595000             -3.9910000             -5.9865000
Pd             15.9640000            -19.9550000             -7.9820000
Pd             13.9685000            -17.9595000             -7.9820000
Pd             15.9640000            -17.9595000             -5.9865000
Pd             13.9685000            -19.9550000             -5.9865000
Pd             15.9640000            -15.9640000             -7.9820000
Pd             13.9685000            -13.9685000             -7.9820000
Pd             15.9640000            -13.9685000             -5.9865000
Pd             13.9685000            -15.9640000             -5.9865000
Pd             15.9640000            -11.9730000             -7.9820000
Pd             13.9685000             -9.9775000             -7.9820000
Pd             15.9640000             -9.9775000             -5.9865000
Pd             13.9685000            -11.9730000             -5.9865000
Pd             15.9640000             -7.9820000             -7.9820000
Pd             13.9685000             -5.9865000             -7.9820000
Pd             15.9640000             -5.9865000             -5.9865000
Pd             13.9685000             -7.9820000             -5.9865000
Pd             15.9640000             -3.9910000             -7.9820000
Pd             13.9685000             -1.9955000             -7.9820000
Pd             15.9640000             -1.9955000             -5.9865000
Pd             13.9685000             -3.9910000             -5.9865000
Pd             11.9730000            -19.9550000             -7.9820000
Pd              9.9775000            -17.9595000             -7.9820000
Pd             11.9730000            -17.9595000             -5.9865000
Pd              9.9775000            -19.9550000             -5.9865000
Pd             11.9730000            -15.9640000             -7.9820000
Pd              9.9775000            -13.9685000             -7.9820000
Pd             11.9730000            -13.9685000             -5.9865000
Pd              9.9775000            -15.9640000             -5.9865000
Pd             11.9730000            -11.9730000             -7.9820000
Pd              9.9775000             -9.9775000             -7.9820000
Pd             11.9730000             -9.9775000             -5.9865000
Pd              9.9775000            -11.9730000             -5.9865000
Pd             11.9730000             -7.9820000             -7.9820000
Pd              9.9775000             -5.9865000             -7.9820000
Pd             11.9730000             -5.9865000             -5.9865000
Pd              9.9775000             -7.9820000             -5.9865000
Pd             11.9730000             -3.9910000             -7.9820000
Pd              9.9775000             -1.9955000             -7.9820000
Pd             11.9730000             -1.9955000             -5.9865000
Pd              9.9775000             -3.9910000             -5.9865000
Pd              7.9820000            -19.9550000             -7.9820000
Pd              5.9865000            -17.9595000             -7.9820000
Pd              7.9820000            -17.9595000             -5.9865000
Pd              5.9865000            -19.9550000             -5.9865000
Pd              7.9820000            -15.9640000             -7.9820000
Pd              5.9865000            -13.9685000             -7.9820000
Pd              7.9820000            -13.9685000             -5.9865000
Pd              5.9865000            -15.9640000             -5.9865000
Pd              7.9820000            -11.9730000             -7.9820000
Pd              5.9865000             -9.9775000             -7.9820000
Pd              7.9820000             -9.9775000             -5.9865000
Pd              5.9865000            -11.9730000             -5.9865000
Pd              7.9820000             -7.9820000             -7.9820000
Pd              5.9865000             -5.9865000             -7.9820000
Pd              7.9820000             -5.9865000             -5.9865000
Pd              5.9865000             -7.9820000             -5.9865000
Pd              7.9820000             -3.9910000             -7.9820000
Pd              5.9865000             -1.9955000             -7.9820000
Pd              7.9820000             -1.9955000             -5.9865000
Pd              5.9865000             -3.9910000             -5.9865000
Pd              3.9910000            -19.9550000             -7.9820000
Pd              1.9955000            -17.9595000             -7.9820000
Pd              3.9910000            -17.9595000             -5.9865000
Pd              1.9955000            -19.9550000             -5.9865000
Pd              3.9910000            -15.9640000             -7.9820000
Pd              1.9955000            -13.9685000             -7.9820000
Pd              3.9910000            -13.9685000             -5.9865000
Pd              1.9955000            -15.9640000             -5.9865000
Pd              3.9910000            -11.9730000             -7.9820000
Pd              1.9955000             -9.9775000             -7.9820000
Pd              3.9910000             -9.9775000             -5.9865000
Pd              1.9955000            -11.9730000             -5.9865000
Pd              3.9910000             -7.9820000             -7.9820000
Pd              1.9955000             -5.9865000             -7.9820000
Pd              3.9910000             -5.9865000             -5.9865000
Pd              1.9955000             -7.9820000             -5.9865000
Pd              3.9910000             -3.9910000             -7.9820000
Pd              1.9955000             -1.9955000             -7.9820000
Pd              3.9910000             -1.9955000             -5.9865000
Pd              1.9955000             -3.9910000             -5.9865000
Pd             19.9550000            -19.9550000             -3.9910000
Pd             17.9595000            -17.9595000             -3.9910000
Pd             19.9550000            -17.9595000             -1.9955000
Pd             17.9595000            -19.9550000             -1.9955000
Pd             19.9550000            -15.9640000             -3.9910000
Pd             17.9595000            -13.9685000             -3.9910000
Pd             19.9550000            -13.9685000             -1.9955000
Pd             17.9595000            -15.9640000             -1.9955000
Pd             19.9550000            -11.9730000             -3.9910000
Pd             17.9595000             -9.9775000             -3.9910000
Pd             19.9550000             -9.9775000             -1.9955000
Pd             17.9595000            -11.9730000             -1.9955000
Pd             19.9550000             -7.9820000             -3.9910000
Pd             17.9595000             -5.9865000             -3.9910000
Pd             19.9550000             -5.9865000             -1.9955000
Pd             17.9595000             -7.9820000             -1.9955000
Pd             19.9550000             -3.9910000             -3.9910000
Pd             17.9595000             -1.9955000             -3.9910000
Pd             19.9550000             -1.9955000             -1.9955000
Pd             17.9595000             -3.9910000             -1.9955000
Pd             15.9640000            -19.9550000             -3.9910000
Pd             13.9685000            -17.9595000             -3.9910000
Pd             15.9640000            -17.9595000             -1.9955000
Pd             13.9685000            -19.9550000             -1.9955000
Pd             15.9640000            -15.9640000             -3.9910000
Pd             13.9685000            -13.9685000             -3.9910000
Pd             15.9640000            -13.9685000             -1.9955000
Pd             13.9685000            -15.9640000             -1.9955000
Pd             15.9640000            -11.9730000             -3.9910000
Pd             13.9685000             -9.9775000             -3.9910000
Pd             15.9640000             -9.9775000             -1.9955000
Pd             13.9685000            -11.9730000             -1.9955000
Pd             15.9640000             -7.9820000             -3.9910000
Pd             13.9685000             -5.9865000             -3.9910000
Pd             15.9640000             -5.9865000             -1.9955000
Pd             13.9685000             -7.9820000             -1.9955000
Pd             15.9640000             -3.9910000             -3.9910000
Pd             13.9685000             -1.9955000             -3.9910000
Pd             15.9640000             -1.9955000             -1.9955000
Pd             13.9685000             -3.9910000             -1.9955000
Pd             11.9730000            -19.9550000             -3.9910000
Pd              9.9775000            -17.9595000             -3.9910000
Pd             11.9730000            -17.9595000             -1.9955000
Pd              9.9775000            -19.9550000             -1.9955000
Pd             11.9730000            -15.9640000             -3.9910000
Pd              9.9775000            -13.9685000             -3.9910000
Pd             11.9730000            -13.9685000             -1.9955000
Pd              9.9775000            -15.9640000             -1.9955000
Pd             11.9730000            -11.9730000             -3.9910000
Pd              9.9775000             -9.9775000             -3.9910000
Pd             11.9730000             -9.9775000             -1.9955000
Pd              9.9775000            -11.9730000             -1.9955000
Pd             11.9730000             -7.9820000             -3.9910000
Pd              9.9775000             -5.9865000             -3.9910000
Pd             11.9730000             -5.9865000             -1.9955000
Pd              9.9775000             -7.9820000             -1.9955000
Pd             11.9730000             -3.9910000             -3.9910000
Pd              9.9775000             -1.9955000             -3.9910000
Pd             11.9730000             -1.9955000             -1.9955000
Pd              9.9775000             -3.9910000             -1.9955000
Pd              7.9820000            -19.9550000             -3.9910000
Pd              5.9865000            -17.9595000             -3.9910000
Pd              7.9820000            -17.9595000             -1.9955000
Pd              5.9865000            -19.9550000             -1.9955000
Pd              7.9820000            -15.9640000             -3.9910000
Pd              5.9865000            -13.9685000             -3.9910000
Pd              7.9820000            -13.9685000             -1.9955000
Pd              5.9865000            -15.9640000             -1.9955000
Pd              7.9820000            -11.9730000             -3.9910000
Pd              5.9865000             -9.9775000             -3.9910000
Pd              7.9820000             -9.9775000             -1.9955000
Pd              5.9865000            -11.9730000             -1.9955000
Pd              7.9820000             -7.9820000             -3.9910000
Pd              5.9865000             -5.9865000             -3.9910000
Pd              7.9820000             -5.9865000             -1.9955000
Pd              5.9865000             -7.9820000             -1.9955000
Pd              7.9820000             -3.9910000             -3.9910000
Pd              5.9865000             -1.9955000             -3.9910000
Pd              7.9820000             -1.9955000             -1.9955000
Pd              5.9865000             -3.9910000             -1.9955000
Pd              3.9910000            -19.9550000             -3.9910000
Pd              1.9955000            -17.9595000             -3.9910000
Pd              3.9910000            -17.9595000             -1.9955000
Pd              1.9955000            -19.9550000             -1.9955000
Pd              3.9910000            -15.9640000             -3.9910000
Pd              1.9955000            -13.9685000             -3.9910000
Pd              3.9910000            -13.9685000             -1.9955000
Pd              1.9955000            -15.9640000             -1.9955000
Pd              3.9910000            -11.9730000             -3.9910000
Pd              1.9955000             -9.9775000             -3.9910000
Pd              3.9910000             -9.9775000             -1.9955000
Pd              1.9955000            -11.9730000             -1.9955000
Pd              3.9910000             -7.9820000             -3.9910000
Pd              1.9955000             -5.9865000             -3.9910000
Pd              3.9910000             -5.9865000             -1.9955000
Pd              1.9955000             -7.9820000             -1.9955000
Pd              3.9910000             -3.9910000             -3.9910000
Pd              1.9955000             -1.9955000             -3.9910000
Pd              3.9910000             -1.9955000             -1.9955000
Pd              1.9955000             -3.9910000             -1.9955000
XX             10.0000000            -10.0000000            -10.0000000
