38
Energy:            -153.6500
Ar              0.3749692              0.8884359              0.0714126
Ar             -3.0505125              0.3671480              1.3046662
Ar              3.8907534              1.0651032             -1.0503992
Ar             -2.1781694              0.6285018             -2.4463703
Ar              0.6696962              3.0045794             -2.8480648
Ar              2.4185399             -2.1249947              0.5336974
Ar              4.1568580              3.4464923             -3.9598892
Ar             -0.1255905             -1.0449483              3.0572922
Ar              2.9757627              1.1684917              2.5744756
Ar             -3.4209043             -2.3977047              3.9000636
Ar              1.3036184             -0.9687403             -2.9367208
Ar             -0.4400163              2.7283745              3.1639149
Ar              5.3062116              0.5672155              5.3945827
Ar             -5.8080917             -0.0076008              5.6677517
Ar              1.9639628              4.1709127              0.4753347
Ar             -4.8357674              0.3716676             -5.1546052
Ar              3.0737323             -2.3177465              4.1879100
Ar              1.5530896              0.8061319              5.9474191
Ar             -1.2431187             -2.4456381             -0.3423370
Ar              4.6487797             -0.2394745             -4.5639411
Ar              6.5478262             -2.9641172              5.3180372
Ar             -2.1603066              0.6234389              5.7103523
Ar             -4.2468463              2.9687855              3.5816004
Ar              1.5578551              1.2723294             -6.0005047
Ar             -4.9792602             -2.7288288              0.5084122
Ar             -1.3409672             -1.1296932             -5.6046912
Ar             -1.9056491              2.6891929             -5.5648472
Ar              5.3716869             -2.4137907             -1.6481717
Ar             -3.8243500             -2.6341962             -3.0727397
Ar             -5.7009204              0.3908066             -1.4864060
Ar             -4.4006501             -3.0188814             -6.7992403
Ar             -6.6735033              0.3733808              2.0924489
Ar              3.5610879             -1.8444199              7.8118894
Ar             -7.1213537             -3.0169581              3.6622247
Ar             -2.0523167              3.6792721             -0.1522411
Ar              5.8288547             -1.0901974              1.8968125
Ar             -0.0986474             -2.5603360              6.4223692
Ar              4.9236589              2.2018723             -7.4666548
